<?xml version="1.0" encoding="UTF-8"?>

<!-- generated on 2026-03-18 22:46:24.607797 by Eclipse SUMO randomTrips.py UNKNOWN
<configuration>
    <net-file value="sumo_files/city.net.xml"/>
    <output-trip-file value="sumo_files/city.rou.xml"/>
    <fringe-factor value="5"/>
    <end value="300.0"/>
    <period value="6.0"/>
</configuration>
-->

<!-- generated on 2026-03-18T22:46:24.558177+05:30 by Eclipse SUMO duarouter 1.25.0
<duarouterConfiguration xmlns:xsi="http://www.w3.org/2001/XMLSchema-instance" xsi:noNamespaceSchemaLocation="http://sumo.dlr.de/xsd/duarouterConfiguration.xsd">

    <input>
        <net-file value="sumo_files/city.net.xml"/>
        <route-files value="sumo_files/city.rou.xml"/>
    </input>

    <output>
        <output-file value="routes.rou.xml"/>
        <alternatives-output value="NUL"/>
    </output>

    <time>
        <begin value="0.0"/>
        <end value="300.0"/>
    </time>

    <report>
        <no-warnings value="true"/>
        <ignore-errors value="true"/>
        <no-step-log value="true"/>
    </report>

</duarouterConfiguration>
-->

<routes xmlns:xsi="http://www.w3.org/2001/XMLSchema-instance" xsi:noNamespaceSchemaLocation="http://sumo.dlr.de/xsd/routes_file.xsd">
    <vehicle id="0" depart="0.00">
        <route edges="26755354#9 456959535#7 456959535#8 456959535#9 1249535161#3 1249535161#0 1249535161#1 264753949#0 264753949#1 264753949#2 264753949#3 264753949#4 264753949#5 264753949#6 264753949#7 264753949#8 264753949#9 264753949#10 264753949#11 264753949#12 264753949#13 456959531 1208986540 279088748#0 279088748#1 279088748#2 279088748#3 279088748#4 279088748#5 279088748#6 279088748#7 279088748#8 -170090957 -170090960#3"/>
    </vehicle>
    <vehicle id="1" depart="6.00">
        <route edges="-367744026#1 -1110964274 -367932791#2 -367932791#1 -367932791#0 478372781#6 478372781#7 1210277730 1210207764#0 1210207764#1 1209433714 1209004195#0 1209004195#1 170090974#0 170090974#1 466600301 1209004194#0 1209004194#1 466600302#0 466600302#1 466600302#2 1420677032 1420677031#0 1420677031#1 762826734 1420677036 478249498#0 478249498#1 478249498#2 478249498#3 478249498#4 478249498#5 478249498#6 1208986538 1208986537 456959535#0 456959535#1 456959535#2 -26755655#10"/>
    </vehicle>
    <vehicle id="2" depart="12.00">
        <route edges="26755893#0 -26755299#1 -26755299#0 -26755859#1 -26755859#0 466622339#0 466622339#1 466622339#2 26755759#0 26755759#1 26764959#6 1249535162#3 1249535162#0 1249535162#1 1058459828#0 1058459828#1 1058459828#2 1058459829 1058459830#0 1058459830#1 1058459831 26755655#0 26755655#1 26755655#2 26755630#0 26755537#3"/>
    </vehicle>
    <vehicle id="3" depart="18.00">
        <route edges="478768552#14 -478768552#14 -478768554#0 1152830040 26754164#0 26754189#0 26754189#1 26754189#2 26754189#3 26754189#4 26754189#5 1189548648#0 1189548648#1 478372781#0 478372781#1 478372781#2 478372781#3 478372781#4 478372781#5 478372781#6 478372781#7 1210277730 1210207764#0 1210207764#1 1209433714 1209004195#0 1209004195#1 170090974#0 170090974#1 466600301 1209004194#0 1209004194#1 1317517916 279088741 746487561 746487564 1317517914 279088743#4 279088743#5 279088743#6 279088743#7 279088743#8 279088743#9 279088743#10 279088743#11 279088743#12 1209072900#0 1209072900#1 1208791980 1208791979#0 1208791979#1 26754165#0 26754165#1 26754165#2 26754165#3 26754165#4 279088750 279088751 26754522#0 -26754480"/>
    </vehicle>
    <vehicle id="4" depart="24.00">
        <route edges="-875799006 875799005#1 26754699#8 26754699#9 26754699#10 1249535161#0 1249535161#1 264753949#0 264753949#1 264753949#2 264753949#3 264753949#4 264753949#5 264753949#6 264753949#7 264753949#8 264753949#9 264753949#10 264753949#11 264753949#12 264753949#13 456959531 1208986540 279088748#0 279088748#1 279088748#2 279088748#3 -170090961#4 -170090961#3 -170090978#3 -170090964#0"/>
    </vehicle>
    <vehicle id="5" depart="30.00">
        <route edges="-1208795194 1208795194 1208795193#0 1208795193#1 26764960#0 26764960#1 26764960#2 26764960#3 26764960#4 26764960#5 26764960#6 26764960#7 26764960#8 26764960#9 26764960#10 26764960#11 880075597#0 880075597#1 -26755988#3 -26755988#2 -26755988#1 -26755636#7 -26755636#6 26755575#2 -875801054 -26755558#1"/>
    </vehicle>
    <vehicle id="6" depart="36.00">
        <route edges="26755395#5 26755395#6 -746541091#1 -746541091#0 26755149#3 26755149#4 1210205478 1210277739 746487559#0 -26755972#4 -26755972#3 -26755972#2 -26755972#1 -26754205#2 26754197"/>
    </vehicle>
    <vehicle id="7" depart="42.00">
        <route edges="-26755756#3 -26755756#2 -26755756#1 -26755756#0 -26755930#5 -26755930#4 -26755930#3 -26755930#2 -26755930#1 -26755930#0 292050680#4 292050680#5 292050680#6 26755555#6 478247547#5 478249501#0 478249501#1 478249501#2 478249501#3 478249501#4 478249501#5 1208791981 1209072882 26764960#0 26764960#1 26764960#2 26764960#3 26764960#4 26764960#5 26764960#6 26764960#7 26764960#8 26764960#9 26764960#10 26764960#11 26764960#12 26764960#13 26764960#14 26764959#0 26764959#1 26764959#2 26764959#3 26764959#4 26764959#5 26764959#6 1249535162#3 1249535162#0 26754699#0 26754699#1 26754699#2 26754699#3 26754699#4 -26754584#2 26754584#2"/>
    </vehicle>
    <vehicle id="8" depart="48.00">
        <route edges="368089794#1 -368089794#1 -368089794#0 264753949#4 264753949#5 264753949#6 264753949#7 264753949#8 264753949#9 264753949#10 264753949#11 264753949#12 264753949#13 456959531 1208986540 279088748#0 279088748#1 279088748#2 279088748#3 279088748#4 279088748#5 279088748#6 279088748#7 279088748#8 279088748#9 279088748#10 279088748#11 1420677034 1420677033 1420677032 1209072902#0 1209072902#1 1209072902#2 1209072902#3 1209072902#4 1209072902#5 26755202 -1082821616#4 -1082821616#3"/>
    </vehicle>
    <vehicle id="9" depart="54.00">
        <route edges="-478254521#7 -26755485#2 -26755485#1 -26755485#0 26764959#4 26764959#5 -26755759#1 -26755759#0 -466622339#2 -466622339#1 -466622339#0 26755859#0 -26755841#1 26755393 -26755751#1 -26755382#1 -26755382#0"/>
    </vehicle>
    <vehicle id="10" depart="60.00">
        <route edges="875789253 26754189#1 26754189#2 26754189#3 26754189#4 26754189#5 1189548648#0 1189548648#1 478372781#0 478372781#1 478372781#2 478372781#3 478372781#4 478372781#5 478372781#6 478372781#7 1210277730 1210207764#0 1210207764#1 1209433714 1209004195#0 1209004195#1 170090974#0 170090974#1 466600301 1209004194#0 1209004194#1 1317517916 279088741 746487561 746487564 1317517914 279088743#4 279088743#5 279088743#6 279088743#7 279088743#8 279088743#9 279088743#10 279088743#11 279088743#12 1209072900#0 1209072900#1 1209072882 26764960#0 26764960#1 26764960#2 26764960#3 26764960#4 26764960#5 26764960#6 26764960#7 26764960#8 26764960#9 26764960#10 26764960#11 26764960#12 26764960#13 703281150 -876418713#9 -26755764#5 26755906#0 26755906#1 -876410421 -466622341#2 -466622341#1 26755337#0 26755337#1 -478061447#2 -478061447#1 -478061447#0"/>
    </vehicle>
    <vehicle id="11" depart="66.00">
        <route edges="-26754473 466600305#5 466600305#6 466600305#7 466600305#8 466600305#9 466600305#10 466600305#11 466600305#12 26755988#2 26755988#3 880075598#0 880075598#1 26764960#11 26764960#12 26764960#13 26764960#14 26764959#0 26764959#1 26764959#2 26764959#3 26764959#4 26764959#5 26764959#6 1249535162#3 1249535162#0 26754699#0 26754699#1 26754699#2 26754699#3 26754699#4 26754699#5 26754699#6 26754699#7 26754699#8 -26754557"/>
    </vehicle>
    <vehicle id="12" depart="72.00">
        <route edges="466615086#1 466617964#7 264726315#2 264726315#3 264726315#4 264726315#5 264753949#3 264753949#4 264753949#5 264753949#6 264753949#7 264753949#8 264753949#9 264753949#10 264753949#11 264753949#12 264753949#13 456959531 1208986540 279088748#0 279088748#1 279088748#2 279088748#3 279088748#4 279088748#5 279088748#6 279088748#7 279088748#8 279088748#9 279088748#10 279088748#11 1420677034 279088746#0 279088746#1 1209004191 466600299 466600300#0 466600300#1 1209004190#0 1209004190#1 1209433714 1209004195#0 1209004195#1 170090974#0 26754887#0 -26754809#8 -26754809#7 -26754809#6 -26754809#5 -26754809#4 26754809#4"/>
    </vehicle>
    <vehicle id="13" depart="78.00">
        <route edges="367947885#0 -367947885#0 -26764919#3 -26764919#2 -26764919#1 -26754877#3 -26754877#2 -26754877#1 -26754877#0 26755555#3 876507452 478249500#3 479015744#0 -26755930#6 -26755930#5 -26755930#4 -26755930#3 -26755930#2 -26755930#1 26755919#0 26755919#1 26755919#2"/>
    </vehicle>
    <vehicle id="14" depart="84.00">
        <route edges="26754205#2 26755972#1 26755972#2 -26755958#1 -26755958#0 26755967#2 -26754221#0 1210205477#1 1210277739 1210208439 1210277730 1210207764#0 1210207764#1 1209433714 1209004195#0 1209004195#1 170090974#0 170090974#1 466600301 1209004194#0 1209004194#1 466600302#0 466600302#1 466600302#2 1420677032 1420677031#0 1420677031#1 762826734 1420677036 478249498#0 478249498#1 478249498#2 478249498#3 478249498#4 478249498#5 478249498#6 1208986538 1208986537 456959535#0 456959535#1 -875747691#2 -875747691#1 875802041#1"/>
    </vehicle>
    <vehicle id="15" depart="90.00">
        <route edges="-776194441#0 -776194442#1 -776194442#0 -286085877#4 -286085877#3 -286085877#2 -286085877#1 -286085877#0 264753949#8 264753949#9 264753949#10 264753949#11 264753949#12 264753949#13 456959531 1208986540 279088748#0 279088748#1 279088748#2 279088748#3 279088748#4 279088748#5 -1063896280 478249498#4 -26754215#3 -26754215#2 -742107433#3 26754223#2"/>
    </vehicle>
    <vehicle id="16" depart="96.00">
        <route edges="465595773#1 -465595773#1 -465595773#0 26755365#0 26755397 279088743#10 279088743#11 279088743#12 1209072900#0 1209072900#1 1208791980 1208791979#0 1208791979#1 1208795194 279091483#0 279091483#1 279091483#2 279091483#3 279091483#4 279091483#5 279091483#6 279091483#7 279091483#8 279091483#9 279091483#10 26755213#0"/>
    </vehicle>
    <vehicle id="17" depart="102.00">
        <route edges="478061444#2 466622340#3 466622340#4 466622341#0 466622341#1 466622341#2 876410421 -26755906#1 -26755906#0 26755764#5 876418713#9 876418713#10 876418713#11 466611136#3 880075597#1 -26755988#3 -26755988#2 -466600305#12 -466600305#11 -466600305#10 -466600305#9 -466600305#8 -466600305#7 -466600305#6 -466600305#5 26754473"/>
    </vehicle>
    <vehicle id="18" depart="108.00">
        <route edges="26755614#6 26755614#7 26755614#8 26755614#9 26755614#10 26755614#11 26755388#0 26755388#1 26755388#2 1082821605#0 1082821605#1 1082821605#2 1082821605#3 279088743#3 279088743#4 279088743#5 279088743#6 279088743#7 279088743#8 279088743#9 279088743#10 279088743#11 279088743#12 1209072900#0 1209072900#1 1208791980 1208791979#0 1208791979#1 1208795194 279091483#0 -26755164 -26754146#2 -26754146#1 -26754146#0"/>
    </vehicle>
    <vehicle id="19" depart="114.00">
        <route edges="-26755859#2 -26755859#1 -26755859#0 -26755416 -466622340#0 -466622343 26755867#0 450961917 1208988379#2 1208988379#3 1208988379#4 1208988379#5 1208988379#6 1208988379#7 1208988379#8 1210202894 1208795196#0 1208795196#1 1208795196#2 1208795196#3 1209427213 1209427212 279088750 279088751 26754522#0 26754522#1 26754522#2 26754522#3 26754522#4 26754522#5 26754522#6 26754522#7 26754522#8 26754522#9 26754522#10 26754366#1 170090966#0 170090966#1 465606728#0 367947864#0 367947864#1 -367947851"/>
    </vehicle>
    <vehicle id="20" depart="120.00">
        <route edges="-26754314#0 26755507#0 26755507#1 26755539#2 26755539#3 26755539#4 466622340#4 466622341#0 466622341#1 26755360 26755906#3 26755906#4 26755759#0 26755759#1 -26755759#1"/>
    </vehicle>
    <vehicle id="21" depart="126.00">
        <route edges="-26754527#0 876092967#4 -26754653#1 26754641 478249501#5 1208791981 1209072882 1208795192 170090972 1209004192 466600306 466600308#0 466600308#1 466600308#2 466600308#3 1317517913 279088738 746487562 746487563 1317517915 1209004191 466600299 466600300#0 466600300#1 478376813 1210205477#0 1210205477#1 1210277739 746487559#0 746487559#1 746487559#2 746487559#3 746487559#4 746487559#5 746487559#6 746487559#7 746487559#8 746487559#9 746487559#10 746487559#11 26754189#5 1189548648#0 1189548648#1 367405190#0 367405190#1 367405190#2 367405190#3 -367405190#3"/>
    </vehicle>
    <vehicle id="22" depart="132.00">
        <route edges="26755337#4 -26755337#4 -26755337#3 -26755337#2 -26755337#1 -26755337#0 466622341#1 466622341#2 876410421 -26755906#1 -26755906#0 26755764#5 876418713#9 876418713#10 876418713#11 466611136#3 880075597#1 -26755988#3 -26755988#2 -26755988#1 -26755988#0 -26754355#7 -26754355#6 -742106676#2 -742106676#1 -742106676#0 -170090955#14 -170090955#13 -170090955#12 -875755091#1 -742107432#1"/>
    </vehicle>
    <vehicle id="23" depart="138.00">
        <route edges="-367405190#1 -367405190#0 478372781#0 478372781#1 478372781#2 478372781#3 478372781#4 478372781#5 478372781#6 478372781#7 1210277730 1210207764#0 1210207764#1 1209433714 1209004195#0 1209004195#1 170090974#0 170090974#1 466600301 1209004194#0 1209004194#1 466600302#0 466600302#1 466600302#2 1420677032 1420677031#0 1420677031#1 762826734 1420677036 1420677035 1420677034 279088746#0 -170090960#10 466609927 -466600304#3 -466600304#2 -466600304#1 875755092"/>
    </vehicle>
    <vehicle id="24" depart="144.00">
        <route edges="26755395#0 26755395#1 26755395#2 1185500944 -1185500943 1210207764#1 1209433714 1209004195#0 1209004195#1 170090974#0 170090974#1 466600301 1209004194#0 1209004194#1 1317517916 279088741 746487561 746487564 1317517914 279088743#4 279088743#5 279088743#6 279088743#7 279088743#8 279088743#9 279088743#10 279088743#11 279088743#12 1209072900#0 1209072899 292050680#0 292050680#1 292050680#2 292050680#3 292050680#4 292050680#5 292050680#6 292050680#7 292050680#8 292050680#9 478247544 -26764919#5 -26764919#4 -26764919#3 -26764919#2 -26764919#1 -26754877#3 26754877#3"/>
    </vehicle>
    <vehicle id="25" depart="150.00">
        <route edges="-26755464#6 26755464#6 26755464#7 26755464#8 26755464#9 26755464#10 26755464#11 26755464#12 26755464#13 26755464#14 26755464#15 26755464#16 26755464#17 466600302#1 466600302#2 1420677032 1420677031#0 1420677031#1 279088743#0 279088743#1 279088743#2 279088743#3 279088743#4 279088743#5 279088743#6 279088743#7 279088743#8 279088743#9 279088743#10 279088743#11 279088743#12 1209072900#0 1209072899 292050680#0 292050680#1 292050680#2 292050680#3 26755930#0 26755919#0"/>
    </vehicle>
    <vehicle id="26" depart="156.00">
        <route edges="-26755450#4 875747688 478254522#4 478254522#5 478254522#6 1058459828#0 1058459828#1 1058459828#2 1058459829 1058459830#0 1058459830#1 1058459831 466611136#0 466611136#1 466611136#2 466611136#3 466611136#4 466611136#5 466611136#6 466611136#7 1384011135#0 1384011135#1 1209004193 1208795191 1209072899 292050680#0 292050680#1 292050680#2 292050680#3 292050680#4 292050680#5 292050680#6 292050680#7 292050680#8 292050680#9 1209072897 1209072896 478247546#0 -874555165#1 -874555165#0"/>
    </vehicle>
    <vehicle id="27" depart="162.00">
        <route edges="876418713#8 876418713#9 876418713#10 876418713#11 466611136#3 466611136#4 466611136#5 466611136#6 466611136#7 1384011135#0 1384011135#1 279091475 1209004192 466600306 466600308#0 466600308#1 466600308#2 466600308#3 279088740#0 279088740#1 279088740#2 279088740#3 279088740#4 279088740#5 1420677036 1420677035 1420677034 1420677033 1420677032 1209072902#0 1209072902#1 1209072902#2 1209072902#3 1209072902#4 1209072902#5 26755202 -1082821616#4 26755387"/>
    </vehicle>
    <vehicle id="28" depart="168.00">
        <route edges="26754355#0 26754355#1 26754355#2 26754355#3 26754355#4 26754355#5 26754355#6 26754355#7 -26755621#8 -26755621#7 -26755575#4 26755575#4"/>
    </vehicle>
    <vehicle id="29" depart="174.00">
        <route edges="466609929#2 466609929#3 466609929#4 466609929#5 466609929#6 466609929#7 466609929#8 466609929#9 466609929#10 466609929#11 466609929#12 466609929#13 466609929#14 466609929#15 1209004194#1 466600302#0 466600302#1 466600302#2 1420677032 1420677031#0 1420677031#1 762826734 1420677036 1420677035 1420677034 279088746#0 279088746#1 1209004191 466600299 466600300#0 466600300#1 478376813 1210205477#0 1210205477#1 1210277739 1210208439 1159125075#0 1159125075#1 1159125075#2 -367405223#2 -367405223#1 367405112"/>
    </vehicle>
    <vehicle id="30" depart="180.00">
        <route edges="-26755867#0 -26755460#2 -26755460#1 -26755460#0 -26755764#0 1208988379#4 1208988379#5 1208988379#6 1208988379#7 1208988379#8 1210202894 1208795196#0 1208795196#1 1208795196#2 1208795196#3 1209427213 279091485#0 279091485#1 1208795193#0 1208795193#1 1208795192 170090972 1209004192 466600306 466600308#0 466600308#1 466600308#2 466600308#3 279088740#0 279088740#1 279088740#2 279088740#3 279088740#4 279088740#5 1420677036 478249498#0 478249498#1 478249498#2 478249498#3 1063896280 279088748#6 279088748#7 -170090979 -170090973#0"/>
    </vehicle>
    <vehicle id="31" depart="186.00">
        <route edges="-466609929#5 466609929#5 466609929#6 466609929#7 466609929#8 466609929#9 466609929#10 466609929#11 466609929#12 466609929#13 466609929#14 466609929#15 1209004194#1 466600302#0 466600302#1 466600302#2 1420677032 1420677031#0 1420677031#1 762826734 1420677036 478249498#0 478249498#1 478249498#2 478249498#3 478249498#4 478249498#5 478249498#6 1208986538 1208986537 456959535#0 456959534#3 1194262841#0 1194262841#1 -286085990 286085579#3 286085579#4 286085579#5 286085579#6 -286098245#4 -286082715#4"/>
    </vehicle>
    <vehicle id="32" depart="192.00">
        <route edges="-26755636#5 -26755636#4 -26755636#3 -26755636#2 -26755636#1 -26755636#0 26755655#2 26755655#3 26755655#4 26755655#5 26755655#6 26755655#7 26755655#8 26755655#9 26755655#10 456959535#3 456959535#4 456959535#5 -264726315#6 -264726315#5 -264726315#4 875771647#0 875771647#1 875771647#2 875771647#3"/>
    </vehicle>
    <vehicle id="33" depart="198.00">
        <route edges="478254521#8 478254521#9 478254521#10 26755644#0 26755644#1 26755644#2 26755644#3 26755644#4 26755644#5 -466600305#13 -466600305#12 -466600305#11"/>
    </vehicle>
    <vehicle id="34" depart="204.00">
        <route edges="26755414 26764916#0 26764916#1 1209427214 1209427213 279091485#0 279091485#1 1208795193#0 1208795193#1 1208795192 170090972 1209004192 466600306 466600308#0 466600308#1 466600308#2 466600308#3 279088740#0 279088740#1 279088740#2 279088740#3 279088740#4 279088740#5 1420677036 478249498#0 478249498#1 478249498#2 478249498#3 478249498#4 478249498#5 478249498#6 1208986538 1208986537 456959535#0 456959535#1 456959535#2 456959535#3 456959535#4 456959535#5 -264726315#6 -264726315#5 -264726315#4 875771647#0 875771647#1 875771647#2 -875771648"/>
    </vehicle>
    <vehicle id="35" depart="210.00">
        <route edges="-286098245#4 -286082715#4 -286082715#3 -286082715#2 -286082715#1 -286082715#0 264753949#9 264753949#10 264753949#11 264753949#12 456959532#0 456959532#1 464097500#0 464097500#1 464097500#2 -90622231 26755988#0 26755988#1 26755988#2 26755988#3 880075598#0 880075598#1 26764960#11 26764960#12 26764960#13 26764960#14 26764959#0 26764959#1 26764959#2 26764959#3 26764959#4 26764959#5 -26755759#1 -26755759#0 -26755906#4"/>
    </vehicle>
    <vehicle id="36" depart="216.00">
        <route edges="26754366#0 26754366#1 26754344#0 26754527#11 -478249503#3 -478249503#2 -478249503#1 -478249503#0 478249502 478249501#0 478249501#1 478249501#2 478249501#3 478249501#4 478249501#5 1208791981 1209072882 1208795192 170090972 1209004192 466600306 466600308#0 466600308#1 466600308#2 466600308#3 279088740#0 279088739 26754250#0 -279088735#1"/>
    </vehicle>
    <vehicle id="37" depart="222.00">
        <route edges="26754605#0 26754605#1 26754605#2 26754605#3 26754699#2 26754699#3 26754699#4 26754699#5 26754699#6 26754699#7 26754699#8 26754699#9 26754699#10 1249535161#0 1249535161#1 264753949#0 264753949#1 264753949#2 264753949#3 264753949#4 264753949#5 264753949#6 264753949#7 264753949#8 264753949#9 264753949#10 264753949#11 264753949#12 264753949#13 456959531 1208986540 279088748#0 279088748#1 279088748#2 279088748#3 279088748#4 279088748#5 279088748#6 279088748#7 279088748#8 279088748#9 279088748#10 279088748#11 1420677034 279088746#0 279088746#1 1209004191 466600299 466600300#0 466600300#1 1209004190#0 1209004190#1 1209433714 746487560#0 746487560#1 746487560#2 746487560#3 658700019#0 478820600#0 478820600#1 478820600#2"/>
    </vehicle>
    <vehicle id="38" depart="228.00">
        <route edges="-875771647#3 -875771647#2 -875771647#1 -875771647#0 264726315#4 264726315#5 264753949#3 264753949#4 264753949#5 264753949#6 264753949#7 264753949#8 264753949#9 264753949#10 264753949#11 264753949#12 456959532#0 456959532#1 464097500#0 464097500#1 464097500#2 -90622231 26755988#0 -26755636#7 -26755636#6"/>
    </vehicle>
    <vehicle id="39" depart="234.00">
        <route edges="880075594#3 880075594#4 1189548648#0 1189548648#1 478372781#0 478372781#1 478372781#2 478372781#3 478372781#4 478372781#5 478372781#6 478372781#7 1210277730 1210207764#0 1210207764#1 1209433714 1209004195#0 1209004195#1 170090974#0 170090974#1 466600301 1209004194#0 1209004194#1 466600302#0 466600302#1 466600302#2 1420677032 1420677031#0 1420677031#1 762826734 1420677036 478249498#0 -26754199#3 -26754199#2 -26754199#1 -26754199#0 170090955#2"/>
    </vehicle>
    <vehicle id="40" depart="240.00">
        <route edges="-26754455#2 -26754455#1 26754422 -26754522#3 -26754522#2 -26754522#1 -26754522#0 -279088751 26754616 1209427216#1 1209427215 26764916#0 26764916#1 1209427214 1209427213 279091485#0 279091485#1 1208795193#0 1208795193#1 1208795192 170090972 1209004192 466600306 466600308#0 466600308#1 466600308#2 466600308#3 279088740#0 279088740#1 279088740#2 279088740#3 279088740#4 279088740#5 1420677036 1420677035 1420677034 1420677033 1420677032 1209072902#0 1209072902#1 26755271 26754160 -26754160"/>
    </vehicle>
    <vehicle id="41" depart="246.00">
        <route edges="-26754664 -26754781#9 -26754781#8 -26754781#7 -26754781#6 -26754781#5 -26754781#4 -26754781#3 -26754781#2 -26754781#1 -26754781#0 -26754887#2 -26754887#1 -26754887#0 170090974#1 466600301 1209004194#0 1209004194#1 1317517916 279088741 746487561 746487564 1317517914 279088743#4 279088743#5 279088743#6 279088743#7 279088743#8 279088743#9 -26755397 -26755365#0 26755325"/>
    </vehicle>
    <vehicle id="42" depart="252.00">
        <route edges="367405216 367932807 478372781#7 1210277730 1210207764#0 1210207764#1 1209433714 1209004195#0 1209004195#1 170090974#0 170090974#1 466600301 1209004194#0 1209004194#1 466600302#0 466600302#1 466600302#2 1420677032 1420677031#0 1420677031#1 762826734 1420677036 478249498#0 478249498#1 478249498#2 478249498#3 478249498#4 478249498#5 478249498#6 1208986538 1208986537 456959535#0 456959535#1 456959535#2 456959535#3 456959535#4 456959535#5 456959535#6 456959535#7 456959535#8 456959535#9 1013619972#0 1013619972#1 1013619973 478254522#0 478254522#1 478254522#2 478254522#3 478254522#4 -1062119655 26754699#1 26754699#2 26754699#3 26754699#4 26754699#5 26754699#6 26754699#7 -875799005#1 -875799005#0"/>
    </vehicle>
    <vehicle id="43" depart="258.00">
        <route edges="-26754205#4 -26754205#3 -26754205#2 -26754205#1 -26754205#0 -26754212 -26754221#3 -26754221#2 -1102801200 466600300#1 1209004190#0 1209004190#1 1209433714 1209004195#0 1209004195#1 170090974#0 170090974#1 466600301 1209004194#0 1209004194#1 466600302#0 466600302#1 466600302#2 1420677032 1420677031#0 1420677031#1 762826734 1420677036 478249498#0 478249498#1 478249498#2 478249498#3 478249498#4 478249498#5 478249498#6 1393480598#0 1393480598#1 464097500#1 464097500#2 -90622231 -26755621#8 -26755621#7 -26755621#6 -26755621#5 -26755621#4 -26755506#4 -875747686#1"/>
    </vehicle>
    <vehicle id="44" depart="264.00">
        <route edges="880075594#0 880075594#1 880075594#2 880075594#3 880075594#4 1189548648#0 1189548648#1 478372781#0 478372781#1 478372781#2 478372781#3 478372781#4 478372781#5 478372781#6 478372781#7 1210277730 1210207764#0 1210207764#1 1209433714 1209004195#0 1209004195#1 170090974#0 170090974#1 466600301 1209004194#0 1209004194#1 466600302#0 466600302#1 466600302#2 1420677032 1420677031#0 1420677031#1 762826734 1420677036 478249498#0 478249498#1 478249498#2 478249498#3 478249498#4 478249498#5 478249498#6 1208986538 1208986537 456959535#0 456959535#1 456959535#2 456959535#3 456959535#4 456959535#5 -264726315#6 -264726315#5 -264726315#4 -264726315#3 -264726315#2 -466617964#7 -466617964#6 -466617964#5 -466617964#4 -466617964#3 -466617964#2 -466617970 264726314#4"/>
    </vehicle>
    <vehicle id="45" depart="270.00">
        <route edges="875799008 -466615089#3 -466615089#2 -466615089#1 -466615089#0 466615088#0 879562787#2 879562787#3 1249535161#1 264753949#0 264753949#1 264753949#2 264753949#3 264753949#4 264753949#5 264753949#6 264753949#7 264753949#8 264753949#9 264753949#10 264753949#11 264753949#12 264753949#13 456959531 1208986540 279088748#0 279088748#1 279088748#2 279088748#3 279088748#4 279088748#5 279088748#6 279088748#7 279088748#8 279088748#9 279088748#10 279088748#11 1420677034 1420677033 1420677032 1420677031#0 1420677031#1 279088743#0 279088743#1 279088743#2 279088743#3 279088743#4 279088743#5 279088743#6 279088743#7 279088743#8 279088743#9 279088743#10 279088743#11 279088743#12 1209072900#0 1209072899 292050680#0 292050680#1 292050680#2 292050680#3 292050680#4 292050680#5 292050680#6 292050680#7 292050680#8 292050680#9 1209072897 1209072896 478247546#0 478247546#1 478247546#2"/>
    </vehicle>
    <vehicle id="46" depart="276.00">
        <route edges="-1082870555 -368089794#4 -368089794#3 -368089794#2 -478254533 264726315#2 264726315#3 264726315#4 264726315#5 264726315#6 456959535#6 456959535#7 456959535#8 456959535#9 1013619972#0 1013619972#1 1013619973 478254522#0 478254522#1 478254522#2 478254522#3 478254522#4 478254522#5 478254522#6 1249535162#2 1249535162#3 1249535163 1208988381#0 -26755627#1 -26755627#0 -26755906#7 -26755906#6 -26755906#5 -26755906#4 -26755906#3 -26755360 -466622341#1 -466622341#0 -466622340#4 -466622340#3 -466622340#2 -466622340#1 -466622340#0 -466622343 26755867#0 26755867#1 26755867#2"/>
    </vehicle>
    <vehicle id="47" depart="282.00">
        <route edges="26755516#0 26755516#1 26755507#0 26755507#1 -26755539#1 -26755539#0 26755764#3 26755764#4 26755764#5 876418713#9 876418713#10 876418713#11 466611136#3 466611136#4 466611136#5 466611136#6 466611136#7 1384011135#0 1384011135#1 1209004193 1208795191 1209072899 292050680#0 292050680#1 292050680#2 292050680#3 292050680#4 292050680#5 292050680#6 292050680#7 292050680#8 292050680#9 478247544 -26764919#5 -26764919#4 -26764919#3 -26764919#2 -26764919#1 -26754877#3 -26754139 26754139"/>
    </vehicle>
    <vehicle id="48" depart="288.00">
        <route edges="-367405190#0 478372781#0 478372781#1 478372781#2 478372781#3 478372781#4 478372781#5 478372781#6 478372781#7 1210277730 1210207764#0 1210207764#1 1209433714 1209004195#0 1209004195#1 170090974#0 170090974#1 466600301 1209004194#0 1209004194#1 466600302#0 466600302#1 466600302#2 1420677032 1420677031#0 1420677031#1 762826734 1420677036 478249498#0 478249498#1 478249498#2 478249498#3 478249498#4 478249498#5 478249498#6 1208986538 1208986537 456959535#0 456959535#1 456959535#2 456959535#3 456959535#4 456959535#5 456959535#6 456959535#7 -26755403#3 26755391#0"/>
    </vehicle>
    <vehicle id="49" depart="294.00">
        <route edges="-26754781#0 -26754887#2 -26754887#1 -26754887#0 170090974#1 466600301 1209004194#0 1209004194#1 1317517916 279088741 746487561 746487564 1317517914 279088743#4 279088743#5 279088743#6 279088743#7 279088743#8 279088743#9 279088743#10 279088743#11 279088743#12 1209072900#0 1209072900#1 1208791980 1208791979#0 26754653#0 26754653#1 -876092967#4"/>
    </vehicle>
</routes>
