<?xml version="1.0" encoding="UTF-8"?>

<!-- generated on 2026-03-18 22:46:24.191465 by Eclipse SUMO randomTrips.py UNKNOWN
<configuration>
    <net-file value="sumo_files/city.net.xml"/>
    <output-trip-file value="sumo_files/city.rou.xml"/>
    <fringe-factor value="5"/>
    <end value="300.0"/>
    <period value="6.0"/>
</configuration>
-->

<routes xmlns:xsi="http://www.w3.org/2001/XMLSchema-instance" xsi:noNamespaceSchemaLocation="http://sumo.dlr.de/xsd/routes_file.xsd">
<vType id="car" accel="2.6" decel="4.5" sigma="0.5" length="5" maxSpeed="10"/>
    <trip id="0" type="car" depart="0.00" from="26755354#9" to="-170090960#3"/>
    <trip id="1" type="car" depart="6.00" from="-367744026#1" to="-26755655#10"/>
    <trip id="2" type="car" depart="12.00" from="26755893#0" to="26755537#3"/>
    <trip id="3" type="car" depart="18.00" from="478768552#14" to="-26754480"/>
    <trip id="4" type="car" depart="24.00" from="-875799006" to="-170090964#0"/>
    <trip id="5" type="car" depart="30.00" from="-1208795194" to="-26755558#1"/>
    <trip id="6" type="car" depart="36.00" from="26755395#5" to="26754197"/>
    <trip id="7" type="car" depart="42.00" from="-26755756#3" to="26754584#2"/>
    <trip id="8" type="car" depart="48.00" from="368089794#1" to="-1082821616#3"/>
    <trip id="9" type="car" depart="54.00" from="-478254521#7" to="-26755382#0"/>
    <trip id="10" type="car" depart="60.00" from="875789253" to="-478061447#0"/>
    <trip id="11" type="car" depart="66.00" from="-26754473" to="-26754557"/>
    <trip id="12" type="car" depart="72.00" from="466615086#1" to="26754809#4"/>
    <trip id="13" type="car" depart="78.00" from="367947885#0" to="26755919#2"/>
    <trip id="14" type="car" depart="84.00" from="26754205#2" to="875802041#1"/>
    <trip id="15" type="car" depart="90.00" from="-776194441#0" to="26754223#2"/>
    <trip id="16" type="car" depart="96.00" from="465595773#1" to="26755213#0"/>
    <trip id="17" type="car" depart="102.00" from="478061444#2" to="26754473"/>
    <trip id="18" type="car" depart="108.00" from="26755614#6" to="-26754146#0"/>
    <trip id="19" type="car" depart="114.00" from="-26755859#2" to="-367947851"/>
    <trip id="20" type="car" depart="120.00" from="-26754314#0" to="-26755759#1"/>
    <trip id="21" type="car" depart="126.00" from="-26754527#0" to="-367405190#3"/>
    <trip id="22" type="car" depart="132.00" from="26755337#4" to="-742107432#1"/>
    <trip id="23" type="car" depart="138.00" from="-367405190#1" to="875755092"/>
    <trip id="24" type="car" depart="144.00" from="26755395#0" to="26754877#3"/>
    <trip id="25" type="car" depart="150.00" from="-26755464#6" to="26755919#0"/>
    <trip id="26" type="car" depart="156.00" from="-26755450#4" to="-874555165#0"/>
    <trip id="27" type="car" depart="162.00" from="876418713#8" to="26755387"/>
    <trip id="28" type="car" depart="168.00" from="26754355#0" to="26755575#4"/>
    <trip id="29" type="car" depart="174.00" from="466609929#2" to="367405112"/>
    <trip id="30" type="car" depart="180.00" from="-26755867#0" to="-170090973#0"/>
    <trip id="31" type="car" depart="186.00" from="-466609929#5" to="-286082715#4"/>
    <trip id="32" type="car" depart="192.00" from="-26755636#5" to="875771647#3"/>
    <trip id="33" type="car" depart="198.00" from="478254521#8" to="-466600305#11"/>
    <trip id="34" type="car" depart="204.00" from="26755414" to="-875771648"/>
    <trip id="35" type="car" depart="210.00" from="-286098245#4" to="-26755906#4"/>
    <trip id="36" type="car" depart="216.00" from="26754366#0" to="-279088735#1"/>
    <trip id="37" type="car" depart="222.00" from="26754605#0" to="478820600#2"/>
    <trip id="38" type="car" depart="228.00" from="-875771647#3" to="-26755636#6"/>
    <trip id="39" type="car" depart="234.00" from="880075594#3" to="170090955#2"/>
    <trip id="40" type="car" depart="240.00" from="-26754455#2" to="-26754160"/>
    <trip id="41" type="car" depart="246.00" from="-26754664" to="26755325"/>
    <trip id="42" type="car" depart="252.00" from="367405216" to="-875799005#0"/>
    <trip id="43" type="car" depart="258.00" from="-26754205#4" to="-875747686#1"/>
    <trip id="44" type="car" depart="264.00" from="880075594#0" to="264726314#4"/>
    <trip id="45" type="car" depart="270.00" from="875799008" to="478247546#2"/>
    <trip id="46" type="car" depart="276.00" from="-1082870555" to="26755867#2"/>
    <trip id="47" type="car" depart="282.00" from="26755516#0" to="26754139"/>
    <trip id="48" type="car" depart="288.00" from="-367405190#0" to="26755391#0"/>
    <trip id="49" type="car" depart="294.00" from="-26754781#0" to="-876092967#4"/>
</routes>
